Version 4
SHEET 1 1140 680
WIRE 48 128 32 128
WIRE 208 128 176 128
WIRE 640 128 208 128
WIRE 784 128 768 128
WIRE 208 240 208 128
WIRE 240 240 208 240
WIRE 432 240 368 240
WIRE 704 240 704 192
WIRE 704 240 560 240
WIRE 848 240 752 240
WIRE 752 272 752 240
WIRE 704 288 704 240
WIRE 704 384 704 336
WIRE 752 384 752 352
WIRE 752 384 704 384
WIRE 752 400 752 384
WIRE 496 480 496 304
WIRE 848 480 848 240
WIRE 848 480 496 480
FLAG 32 128 INPUT
IOPIN 32 128 In
FLAG 784 128 OUTPUT
IOPIN 784 128 Out
FLAG 752 400 0
SYMBOL SP_symb\\Bloc\ fonctionnel\\sum1 544 192 R0
SYMATTR InstName U1
SYMBOL SP_symb\\Bloc\ fonctionnel\\sum1 752 80 R0
SYMATTR InstName U2
SYMBOL SP_symb\\Bloc\ fonctionnel\\gain 160 80 R0
WINDOW 39 -88 119 Left 2
SYMATTR SpiceLine G={KP_I}
SYMATTR InstName U3
SYMBOL SP_symb\\Bloc\ fonctionnel\\gain 352 192 R0
WINDOW 39 -83 113 Left 2
SYMATTR SpiceLine G={KI_I}
SYMATTR InstName U4
SYMBOL e 752 256 R0
SYMATTR InstName E1
SYMATTR Value V=Laplace={1 / s}
TEXT -64 -128 Left 2 ;Device: Correcteur PI\nModel Author: Yannick MOREL\nModel Version: 1.0
TEXT 528 -136 Left 2 ;.inc SP.lib
TEXT 528 -104 Left 2 !.param KP_I=KP KI_I=KI
