Version 4
SHEET 1 1212 912
WIRE -624 -528 -736 -528
WIRE -736 -480 -736 -528
WIRE -624 -432 -624 -528
WIRE -736 -336 -736 -400
WIRE -624 -336 -624 -352
WIRE -624 -336 -736 -336
WIRE -736 -320 -736 -336
WIRE -736 -176 -736 -240
WIRE -1040 -64 -1040 -144
WIRE -1280 -16 -1280 -64
WIRE -608 -16 -736 -16
WIRE -480 -16 -608 -16
WIRE -224 -16 -400 -16
WIRE -32 -16 -224 -16
WIRE 96 -16 -32 -16
WIRE -736 0 -736 -16
WIRE -608 0 -608 -16
WIRE -1472 16 -1536 16
WIRE -1344 16 -1408 16
WIRE -1744 32 -2208 32
WIRE -2208 64 -2208 32
WIRE -1632 112 -1696 112
WIRE -1536 112 -1536 16
WIRE -1536 112 -1632 112
WIRE -1472 112 -1536 112
WIRE -1344 112 -1344 16
WIRE -1344 112 -1408 112
WIRE -1280 112 -1280 48
WIRE -1280 112 -1344 112
WIRE -1200 112 -1280 112
WIRE -1040 112 -1040 0
WIRE -1040 112 -1200 112
WIRE -736 112 -736 64
WIRE -736 112 -1040 112
WIRE -1696 160 -1696 112
WIRE -2208 176 -2208 144
WIRE -1744 176 -1744 32
WIRE -32 176 -32 -16
WIRE 96 192 96 -16
WIRE -1696 288 -1696 240
WIRE -1280 288 -1696 288
WIRE -608 288 -608 64
WIRE -608 288 -1280 288
WIRE -2208 304 -2208 256
WIRE -1744 304 -1744 224
WIRE -1744 304 -2208 304
WIRE -1696 320 -1696 288
WIRE -1280 352 -1280 288
WIRE -736 384 -736 112
WIRE -608 384 -608 288
WIRE -2208 416 -2208 304
WIRE -1280 464 -1280 416
WIRE -736 480 -736 448
WIRE -608 480 -608 448
WIRE -608 480 -736 480
WIRE -320 480 -608 480
WIRE -32 480 -32 256
WIRE -32 480 -320 480
WIRE 96 480 96 256
WIRE 96 480 -32 480
WIRE -736 528 -736 480
WIRE -2208 576 -2208 496
WIRE -736 656 -736 608
FLAG -224 -16 Charge
FLAG -736 656 0
FLAG -2208 576 0
FLAG -1040 -144 0
FLAG -320 480 Masse_Calculateur
FLAG -1200 112 Entrée
FLAG -1696 320 0
FLAG -1632 112 Alimentation
FLAG -736 -176 0
FLAG -1280 -64 Masse_Calculateur
FLAG -1280 464 Masse_Calculateur
SYMBOL voltage -2208 160 R0
WINDOW 0 48 41 Left 2
WINDOW 3 45 68 Left 2
WINDOW 123 0 0 Left 2
WINDOW 39 45 96 Left 2
SYMATTR InstName V1
SYMATTR Value SINE(0 115 400)
SYMBOL voltage -2208 48 R0
WINDOW 0 48 41 Left 2
WINDOW 3 45 68 Left 2
WINDOW 123 0 0 Left 2
WINDOW 39 45 96 Left 2
SYMATTR InstName V2
SYMATTR Value PULSE(0 250 25.5m 20u 20u 100u 1500u 10)
SYMBOL diode -720 448 R180
WINDOW 0 24 64 Left 2
WINDOW 3 24 0 Left 2
SYMATTR InstName D3
SYMBOL diode -592 448 R180
WINDOW 0 24 64 Left 2
WINDOW 3 24 0 Left 2
SYMATTR InstName D4
SYMBOL diode -720 64 R180
WINDOW 0 24 64 Left 2
WINDOW 3 24 0 Left 2
SYMATTR InstName D5
SYMBOL diode -592 64 R180
WINDOW 0 24 64 Left 2
WINDOW 3 24 0 Left 2
SYMATTR InstName D6
SYMBOL res -384 -32 R90
WINDOW 0 0 56 VBottom 2
WINDOW 3 32 56 VTop 2
SYMATTR InstName R_VISU_CHARGE
SYMATTR Value 1n
SYMBOL res -2224 400 R0
SYMATTR InstName R1
SYMATTR Value 100Meg
SYMBOL cap -1296 352 R0
SYMATTR InstName C1
SYMATTR Value 100n
SYMBOL cap -1296 -16 R0
SYMATTR InstName C2
SYMATTR Value 100n
SYMBOL res -48 160 R0
SYMATTR InstName R7
SYMATTR Value 50
SYMBOL cap 80 192 R0
SYMATTR InstName C3
SYMATTR Value 20m
SYMBOL e -1696 144 R0
SYMATTR InstName E1
SYMATTR Value 1
SYMBOL AutoGenerated\\MLV2220E36003T -1040 -32 R90
SYMATTR InstName U1
SYMBOL diode -1472 128 R270
WINDOW 0 32 32 VTop 2
WINDOW 3 0 32 VBottom 2
SYMATTR InstName D1
SYMATTR Value LimiterDiode
SYMBOL diode -1408 32 M270
WINDOW 0 32 32 VTop 2
WINDOW 3 0 32 VBottom 2
SYMATTR InstName D2
SYMATTR Value LimiterDiode
SYMBOL res -752 512 R0
SYMATTR InstName R2
SYMATTR Value 100Meg
SYMBOL res -752 -336 R0
SYMATTR InstName R3
SYMATTR Value 1
SYMBOL voltage -736 -496 R0
WINDOW 123 0 0 Left 2
WINDOW 39 0 0 Left 2
SYMATTR InstName V3
SYMATTR Value 10
SYMBOL res -640 -448 R0
SYMATTR InstName R4
SYMATTR Value 1
TEXT -2184 -320 Left 2 !.tran 0 90m 0 100n startup
TEXT -2184 -224 Left 2 !.options gmin=1e-10\n.options abstol=1e-10\n.options reltol=0.003\n.options cshunt=1e-15
TEXT -2184 -288 Left 2 !.inc "C:\\Program Files\\LTC\\LTspiceXVII\\lib\\sub\\SP.lib"
TEXT -2184 -96 Left 2 !.model LimiterDiode D(ron=0, ilimit=750)
